Version 4
SHEET 1 880 680
WIRE 128 48 32 48
WIRE 320 48 128 48
WIRE 400 48 320 48
WIRE 128 80 128 48
WIRE 160 80 128 80
WIRE 320 96 320 48
WIRE 400 96 400 48
WIRE 64 128 32 128
WIRE 160 128 160 80
WIRE 160 128 128 128
WIRE 128 224 128 176
WIRE 320 224 320 176
WIRE 320 224 128 224
FLAG 400 96 0
SYMBOL YSS_PMOS\\PMOS 64 128 R0
SYMATTR InstName M1
SYMATTR Value2 l=10u w=100u
SYMBOL voltage 320 80 R0
WINDOW 123 0 0 Left 0
WINDOW 39 0 0 Left 0
SYMATTR InstName V1
SYMATTR Value 10
SYMBOL voltage 32 32 R0
SYMATTR InstName V2
TEXT 16 256 Left 2 !.include mineda2020_1_pmos.txt
TEXT -2 276 Left 2 !;.dc V1 0 10 0.1 v2 0 10 1\n.dc v2 0 10 0.1
