Version 4
SHEET 1 2296 2968
WIRE -48 -976 -96 -976
WIRE 80 -976 32 -976
WIRE 192 -976 80 -976
WIRE 320 -976 320 -1008
WIRE 320 -976 272 -976
WIRE 528 -976 320 -976
WIRE 720 -976 608 -976
WIRE -256 -912 -256 -1008
WIRE -432 -832 -432 -1024
WIRE -256 -784 -256 -832
WIRE 464 -736 464 -800
WIRE 544 -736 544 -800
WIRE 320 -704 320 -976
WIRE 400 -704 320 -704
WIRE 720 -704 720 -976
WIRE 720 -704 640 -704
WIRE 1024 -704 720 -704
WIRE 80 -688 80 -976
WIRE -432 -656 -432 -752
WIRE -368 -656 -432 -656
WIRE -224 -656 -288 -656
WIRE -144 -656 -160 -656
WIRE -96 -656 -96 -976
WIRE -96 -656 -144 -656
WIRE 400 -608 320 -608
WIRE 720 -608 640 -608
WIRE 816 -608 720 -608
WIRE -368 -592 -368 -656
WIRE 480 -560 480 -576
WIRE 496 -560 480 -560
WIRE 432 -528 432 -576
WIRE 496 -528 496 -560
WIRE -432 -512 -432 -656
WIRE 544 -512 544 -576
WIRE 816 -480 816 -608
WIRE 816 -480 784 -480
WIRE 848 -480 816 -480
WIRE 1024 -480 1024 -704
WIRE 1024 -480 992 -480
WIRE 1056 -480 1024 -480
WIRE 848 -448 848 -480
WIRE 992 -448 992 -480
WIRE 784 -432 784 -480
WIRE 1056 -432 1056 -480
WIRE -96 -336 -96 -656
WIRE -48 -336 -96 -336
WIRE 80 -336 80 -608
WIRE 80 -336 32 -336
WIRE 192 -336 80 -336
WIRE 320 -336 320 -608
WIRE 320 -336 272 -336
WIRE 496 -336 320 -336
WIRE 720 -336 720 -608
WIRE 720 -336 576 -336
WIRE 784 -336 784 -368
WIRE 816 -336 784 -336
WIRE 848 -336 848 -368
WIRE 848 -336 816 -336
WIRE 992 -336 992 -368
WIRE 1024 -336 992 -336
WIRE 1056 -336 1056 -368
WIRE 1056 -336 1024 -336
WIRE 320 -304 320 -336
WIRE 816 -304 816 -336
WIRE 1024 -304 1024 -336
WIRE -432 -288 -432 -432
FLAG -256 -784 0
FLAG -368 -592 0
FLAG 816 -304 0
FLAG 1024 -304 0
FLAG -432 -1024 +VDD
IOPIN -432 -1024 Out
FLAG -432 -288 -VSS
IOPIN -432 -288 Out
FLAG -256 -1008 Iref
IOPIN -256 -1008 Out
FLAG 816 -608 -OUT
IOPIN 816 -608 Out
FLAG 1024 -704 +OUT
IOPIN 1024 -704 Out
FLAG -288 -656 0
FLAG 320 -304 +IN
IOPIN 320 -304 Out
FLAG 320 -1008 -IN
IOPIN 320 -1008 Out
FLAG 544 -800 +VDD
IOPIN 544 -800 In
FLAG 544 -512 -VSS
IOPIN 544 -512 In
FLAG 464 -800 Iref
IOPIN 464 -800 In
SYMBOL current -256 -912 R0
WINDOW 123 0 0 Left 2
WINDOW 39 0 0 Left 2
SYMATTR InstName Iref
SYMATTR Value 208u
SYMBOL voltage 80 -592 R180
WINDOW 123 24 124 Left 2
WINDOW 39 0 0 Left 2
SYMATTR Value SINE(0 100m 1k)
SYMATTR InstName Vin-diff
SYMBOL voltage -432 -528 R0
WINDOW 123 24 44 Left 2
WINDOW 39 0 0 Left 2
SYMATTR Value2 AC 1
SYMATTR InstName V2
SYMATTR Value 5
SYMBOL res 832 -464 R0
SYMATTR InstName R5
SYMATTR Value 10k
SYMBOL res 976 -464 R0
SYMATTR InstName R6
SYMATTR Value 10k
SYMBOL voltage -432 -848 R0
WINDOW 123 24 44 Left 2
WINDOW 39 0 0 Left 2
SYMATTR InstName V4
SYMATTR Value 5
SYMBOL res -64 -960 R270
WINDOW 0 32 56 VTop 2
WINDOW 3 0 56 VBottom 2
SYMATTR InstName R7
SYMATTR Value 1
SYMBOL res -64 -320 R270
WINDOW 0 32 56 VTop 2
WINDOW 3 0 56 VBottom 2
SYMATTR InstName R8
SYMATTR Value 1
SYMBOL cap 768 -432 R0
SYMATTR InstName C1
SYMATTR Value 50p
SYMBOL cap 1040 -432 R0
SYMATTR InstName C2
SYMATTR Value 50p
SYMBOL voltage -128 -656 R90
WINDOW 123 24 124 Left 2
WINDOW 39 0 0 Left 2
SYMATTR InstName Vin-cm
SYMATTR Value 0
SYMBOL res 624 -992 R90
WINDOW 0 0 56 VBottom 2
WINDOW 3 32 56 VTop 2
SYMATTR InstName R9
SYMATTR Value 100k
SYMBOL res 288 -992 R90
WINDOW 0 0 56 VBottom 2
WINDOW 3 32 56 VTop 2
SYMATTR InstName R10
SYMATTR Value 100k
SYMBOL res 288 -352 R90
WINDOW 0 0 56 VBottom 2
WINDOW 3 32 56 VTop 2
SYMATTR InstName R11
SYMATTR Value 100k
SYMBOL res 592 -352 R90
WINDOW 0 0 56 VBottom 2
WINDOW 3 32 56 VTop 2
SYMATTR InstName R12
SYMATTR Value 100k
SYMBOL cap 496 -544 R90
WINDOW 0 0 32 VBottom 2
WINDOW 3 32 32 VTop 2
SYMATTR InstName C3
SYMATTR Value 1p
SYMBOL DiffAmp 464 -656 R0
SYMATTR InstName X1
TEXT -328 -216 Left 2 !.dc Iref 200u 220u 
TEXT -328 -168 Left 2 !.lib ../../parameter2/mineda2020_1_pmos(Aug18).txt
TEXT -336 -256 Left 2 !;op
TEXT -336 -304 Left 2 !;ac oct 40 1 1G
TEXT -240 -256 Left 2 !;tran 0 10m 0
TEXT -336 -1168 Left 3 ;Sensitivity of output common-mode voltage to Iref, i.e, dVcm/dIref@Iref=210uA is simulated to be\ndVcm/dIref=13.4 [mV/uA]. This may be too sensitive. For exampe, Vcm changes from 0mV\nto 100mV for Iref change from 208uA to 215uA.
